variable  T0    equal 295.15  #K
variable  Pa    equal 0.1  # MPa
variable  P0    equal "v_Pa/0.101325"  # MPa to atm

variable  dt    equal 1.0 #timestep fs

variable  Tdamp equal "v_dt*100"  #1000
variable  Pdamp equal "v_dt*100"  #2500

variable    p equal 2000     # correlation length
variable    s equal 10      # sample interval
variable    d equal $p*$s   # dump interval
variable    d equal 2000*$s
variable    d equal 2000*10

variable  Lr    equal 1e6  # npt/nvt time
variable  Lt    equal 1.5e6  # nve time

# convert from LAMMPS real units to SI
variable    kB equal 1.3806504e-23    # [J/K] Boltzmann
variable    A2m equal 1.0e-10
variable    fs2s equal 1.0e-15
variable    kcalpermol2J equal 4186.0/6.02214e23

# ----------------- Init Section -----------------
units        real
dimension	 3
boundary	 p p p
atom_style   full
pair_style   lj/cut/tip4p/long 1 2 1 1 0.1577 8.5
kspace_style pppm/tip4p 1.0e-4
bond_style   harmonic
angle_style  harmonic
pair_modify mix arithmetic  # Lorenz â€“ Berthelot mixing rules

# ----------------- Atom Definition Section -----------------
read_data "system.data"
Reading data file ...
  orthogonal box = (-1.0304299 -0.97147404 -0.9714736) to (10.85707 10.916026 10.916026)
  reading atoms ...
  146 atoms
  scanning bonds ...
  scanning angles ...
  reading bonds ...
  92 bonds
  reading angles ...
  46 angles
Finding 1-2 1-3 1-4 neighbors ...
     2 = max # of 1-2 neighbors
     1 = max # of 1-3 neighbors
     1 = max # of 1-4 neighbors
     2 = max # of special neighbors
# ----------------- Constraints Section -----------------

replicate 3 3 3
Replicating atoms ...
  orthogonal box = (-1.0304299 -0.97147404 -0.9714736) to (34.63207 34.691026 34.691026)
  3942 atoms
  2484 bonds
  1242 angles
Finding 1-2 1-3 1-4 neighbors ...
     2 = max # of 1-2 neighbors
     1 = max # of 1-3 neighbors
     1 = max # of 1-4 neighbors
     2 = max # of special neighbors
  replicate CPU = 0.117 seconds

# ----------------- Settings Section -----------------
pair_coeff   1 1 	0.21084  	3.1668      # O-water
pair_coeff   1 2 	0.00000  	0.0000      # O-H water
pair_coeff   1 3 	0.24893  	3.4484      # O-CT
pair_coeff   2 2 	0.00000     0.000       # H-H
pair_coeff   2 3 	0.00000     1.865       # H-CT
pair_coeff   3 3  	0.29391		3.730	    # CT-CT methane

bond_coeff   1         0.0    0.9572
angle_coeff  1         0.0    104.52

group water		 	type   1  2
3726 atoms in group water
group methane 		type   3
216 atoms in group methane

fix shaketip4p 	 water   shake 0.0001 100 0 b 1 a 1
       0 = # of size 2 clusters
       0 = # of size 3 clusters
       0 = # of size 4 clusters
    1242 = # of frozen angles
  find clusters CPU = 0.096 seconds

# ----------------- Run Section -----------------
neighbor 2.0 bin
neigh_modify every 1 delay 0 check yes

timestep 1

velocity all create 100 $k4928459 rot yes mom yes dist gaussian
velocity all create 100 14928459 rot yes mom yes dist gaussian

# ----------------- NPT Section -----------------

reset_timestep 0
thermo 1000
thermo_style  custom step density temp press pxx pyy pzz pe ke etotal
dump 1 all custom 1000 traj_npt_relax_295.15_$k.lammpstrj id mol element type x y z
dump 1 all custom 1000 traj_npt_relax_295.15_1.lammpstrj id mol element type x y z
dump_modify 1 element O H C
fix   fxnpt all npt temp 100 500 100 iso 50 50 100

PPPM initialization ...
  extracting TIP4P info from pair style
  G vector (1/distance) = 0.32034713
  grid = 24 24 24
  stencil order = 5
  estimated absolute RMS force accuracy = 0.037613545
  estimated relative force accuracy = 0.00011327207
  3d grid and FFT values/proc = 4693 1152
Generated 0 of 3 mixed pair_coeff terms from arithmetic mixing rule
  update every 1 steps, delay 0 steps, check yes
Step        Density          Temp          Press           Pxx            Pyy            Pzz           PotEng         KinEng         TotEng
0   0.94604554     100           -1492.5827     -4653.8819     -519.79999      695.93361     -21782.865      804.52063     -20978.344
Averages over the last 251 of 501 rows, steps 250000 to 500000:
Density Temp Press Pxx Pyy Pzz PotEng KinEng TotEng
0.751213 399.609 39.8751 -128.48 107.545 140.56 -15874 3214.94 -12659
Loop time of 4791.41 on 16 procs for 500000 steps with 3942 atoms

unfix fxnpt
undump 1
write_data $k_npt_relax.data
write_data 1_npt_relax.data
System init for write_data ...
PPPM initialization ...
  extracting TIP4P info from pair style
  G vector (1/distance) = 0.30445497
  grid = 36 36 36
  stencil order = 5
  estimated absolute RMS force accuracy = 0.03301552
  estimated relative force accuracy = 9.9425257e-05
  3d grid and FFT values/proc = 10000 3888
Generated 0 of 3 mixed pair_coeff terms from arithmetic mixing rule
