Metadata-Version: 2.1
Name: gemseo-fmu
Version: 1.0.1
Summary: GEMSEO plugin for FMU dynamic models.
Home-page: https://www.irt-saintexupery.com
Author: GEMSEO team
Author-email: contact@gemseo.org
License: GNU Lesser General Public License v3
Classifier: License :: OSI Approved :: GNU Lesser General Public License v3 (LGPLv3)
Classifier: Intended Audience :: Science/Research
Classifier: Topic :: Scientific/Engineering
Classifier: Operating System :: POSIX :: Linux
Classifier: Operating System :: MacOS
Classifier: Operating System :: Microsoft :: Windows
Classifier: Programming Language :: Python :: 3 :: Only
Classifier: Programming Language :: Python :: 3.8
Classifier: Programming Language :: Python :: 3.9
Classifier: Programming Language :: Python :: 3.10
Requires-Python: <3.11,>=3.8
Description-Content-Type: text/x-rst
License-File: LICENSE.txt
License-File: CREDITS.rst
Requires-Dist: gemseo (>=5)
Requires-Dist: numpy
Provides-Extra: test
Requires-Dist: covdefaults ; extra == 'test'
Requires-Dist: pytest ; extra == 'test'
Requires-Dist: pytest-cov ; extra == 'test'
Requires-Dist: pytest-xdist ; extra == 'test'

..
    Copyright 2021 IRT Saint Exupéry, https://www.irt-saintexupery.com

    This work is licensed under the Creative Commons Attribution-ShareAlike 4.0
    International License. To view a copy of this license, visit
    http://creativecommons.org/licenses/by-sa/4.0/ or send a letter to Creative
    Commons, PO Box 1866, Mountain View, CA 94042, USA.

Functional Mock-Up Unit models GEMSEO pluging (GEMSEO-FMU)
==========================================================

GEMSEO-FMU is a `GEMSEO <https://gemseo.readthedocs.io>`_ plugin for loading, interacting, and simulating FMU dynamic models.
It enables the integration and exploitation of FMU models in a Multidisciplinary Design Optimization (MDO) context, via GEMSEO.

FMUs are widely used by the simulation community and can be generated by over 170 tools such as Dymola, OpenModelica, CATIA, ANSYS, LS-DYNA, or MATLAB (see the full list here https://www.fmi-standard.org/tools).

Model Exchange models and Co-Simulation models (versions 1.0 and 2.0) are supported.

GEMSEO-FMU relies on the `PyFMI <https://github.com/modelon-community/PyFMI>`_ library for loading the FMU models, setting the model parameters and evaluating model equations.

GEMSEO-FMU translates the FMU model into a GEMSEO discipline named FMUDiscipline, exploitable in MDO processes.
Its usage is straightforward (see the examples folder).


Installation
------------

To install GEMSEO, you need an anaconda environment because PyFMI is onlyu maintained for anaconda.
The following steps must be followed:

.. code-block:: console

   conda create –n gemseo-fmu -c conda-forge python=3.9 pyfmi
   conda activate gemseo-fmu
   pip install gemseo-fmu


Generic examples
----------------

Many examples are available to illustrate the main features of GEMSEO-FMU.
See in the examples directory.


Documentation
-------------

The documentation is not yet available.

Bugs/Questions
--------------

Please use the gitlab issue tracker at
https://gitlab.com/gemseo/dev/gemseo-fmu/-/issues
to submit bugs or questions.

License
-------

The GEMSEO-FMU source code is distributed under the GNU LGPL v3.0 license.
A copy of it can be found in the LICENSE.txt file.
The GNU LGPL v3.0 license is an exception to the GNU GPL v3.0 license.
A copy of the GNU GPL v3.0 license can be found in the LICENSES folder.


Contributors
------------

- Jorge Camacho Casero
- François Gallard
- Antoine Dechaume
